<?xml version="1.0" encoding="UTF-8" standalone="yes"?>
<template encoding-version="1.2">
    <description></description>
    <groupId>f32fee01-016f-1000-2362-194168e06be0</groupId>
    <name>Pulsar Test Flow</name>
    <snippet>
        <connections>
            <id>272e86db-d0d9-3b15-0000-000000000000</id>
            <parentGroupId>018bc718-2e0c-304d-0000-000000000000</parentGroupId>
            <backPressureDataSizeThreshold>1 GB</backPressureDataSizeThreshold>
            <backPressureObjectThreshold>10000</backPressureObjectThreshold>
            <destination>
                <groupId>018bc718-2e0c-304d-0000-000000000000</groupId>
                <id>1c52d129-2e97-3532-0000-000000000000</id>
                <type>PROCESSOR</type>
            </destination>
            <flowFileExpiration>0 sec</flowFileExpiration>
            <labelIndex>1</labelIndex>
            <loadBalanceCompression>DO_NOT_COMPRESS</loadBalanceCompression>
            <loadBalancePartitionAttribute></loadBalancePartitionAttribute>
            <loadBalanceStatus>LOAD_BALANCE_NOT_CONFIGURED</loadBalanceStatus>
            <loadBalanceStrategy>DO_NOT_LOAD_BALANCE</loadBalanceStrategy>
            <name></name>
            <selectedRelationships>failure</selectedRelationships>
            <source>
                <groupId>018bc718-2e0c-304d-0000-000000000000</groupId>
                <id>10393c20-8620-35b3-0000-000000000000</id>
                <type>PROCESSOR</type>
            </source>
            <zIndex>0</zIndex>
        </connections>
        <connections>
            <id>4ff12c3b-ce6c-3103-0000-000000000000</id>
            <parentGroupId>018bc718-2e0c-304d-0000-000000000000</parentGroupId>
            <backPressureDataSizeThreshold>1 GB</backPressureDataSizeThreshold>
            <backPressureObjectThreshold>10000</backPressureObjectThreshold>
            <destination>
                <groupId>018bc718-2e0c-304d-0000-000000000000</groupId>
                <id>10393c20-8620-35b3-0000-000000000000</id>
                <type>PROCESSOR</type>
            </destination>
            <flowFileExpiration>0 sec</flowFileExpiration>
            <labelIndex>1</labelIndex>
            <loadBalanceCompression>DO_NOT_COMPRESS</loadBalanceCompression>
            <loadBalancePartitionAttribute></loadBalancePartitionAttribute>
            <loadBalanceStatus>LOAD_BALANCE_NOT_CONFIGURED</loadBalanceStatus>
            <loadBalanceStrategy>DO_NOT_LOAD_BALANCE</loadBalanceStrategy>
            <name></name>
            <selectedRelationships>success</selectedRelationships>
            <source>
                <groupId>018bc718-2e0c-304d-0000-000000000000</groupId>
                <id>d95f591a-afef-3053-0000-000000000000</id>
                <type>PROCESSOR</type>
            </source>
            <zIndex>0</zIndex>
        </connections>
        <connections>
            <id>71d626c3-d91b-3c80-0000-000000000000</id>
            <parentGroupId>018bc718-2e0c-304d-0000-000000000000</parentGroupId>
            <backPressureDataSizeThreshold>1 GB</backPressureDataSizeThreshold>
            <backPressureObjectThreshold>10000</backPressureObjectThreshold>
            <destination>
                <groupId>018bc718-2e0c-304d-0000-000000000000</groupId>
                <id>c5d20d11-b1d2-3485-0000-000000000000</id>
                <type>PROCESSOR</type>
            </destination>
            <flowFileExpiration>0 sec</flowFileExpiration>
            <labelIndex>1</labelIndex>
            <loadBalanceCompression>DO_NOT_COMPRESS</loadBalanceCompression>
            <loadBalancePartitionAttribute></loadBalancePartitionAttribute>
            <loadBalanceStatus>LOAD_BALANCE_NOT_CONFIGURED</loadBalanceStatus>
            <loadBalanceStrategy>DO_NOT_LOAD_BALANCE</loadBalanceStrategy>
            <name></name>
            <selectedRelationships>success</selectedRelationships>
            <source>
                <groupId>018bc718-2e0c-304d-0000-000000000000</groupId>
                <id>10393c20-8620-35b3-0000-000000000000</id>
                <type>PROCESSOR</type>
            </source>
            <zIndex>0</zIndex>
        </connections>
        <connections>
            <id>8e75ed3f-85b4-3964-0000-000000000000</id>
            <parentGroupId>018bc718-2e0c-304d-0000-000000000000</parentGroupId>
            <backPressureDataSizeThreshold>1 GB</backPressureDataSizeThreshold>
            <backPressureObjectThreshold>10000</backPressureObjectThreshold>
            <destination>
                <groupId>018bc718-2e0c-304d-0000-000000000000</groupId>
                <id>c5d20d11-b1d2-3485-0000-000000000000</id>
                <type>PROCESSOR</type>
            </destination>
            <flowFileExpiration>0 sec</flowFileExpiration>
            <labelIndex>1</labelIndex>
            <loadBalanceCompression>DO_NOT_COMPRESS</loadBalanceCompression>
            <loadBalancePartitionAttribute></loadBalancePartitionAttribute>
            <loadBalanceStatus>LOAD_BALANCE_NOT_CONFIGURED</loadBalanceStatus>
            <loadBalanceStrategy>DO_NOT_LOAD_BALANCE</loadBalanceStrategy>
            <name></name>
            <selectedRelationships>success</selectedRelationships>
            <source>
                <groupId>018bc718-2e0c-304d-0000-000000000000</groupId>
                <id>eeec8b3e-9436-35a6-0000-000000000000</id>
                <type>PROCESSOR</type>
            </source>
            <zIndex>0</zIndex>
        </connections>
        <connections>
            <id>acda97e7-1ac3-3297-0000-000000000000</id>
            <parentGroupId>018bc718-2e0c-304d-0000-000000000000</parentGroupId>
            <backPressureDataSizeThreshold>1 GB</backPressureDataSizeThreshold>
            <backPressureObjectThreshold>10000</backPressureObjectThreshold>
            <destination>
                <groupId>018bc718-2e0c-304d-0000-000000000000</groupId>
                <id>d95f591a-afef-3053-0000-000000000000</id>
                <type>PROCESSOR</type>
            </destination>
            <flowFileExpiration>0 sec</flowFileExpiration>
            <labelIndex>1</labelIndex>
            <loadBalanceCompression>DO_NOT_COMPRESS</loadBalanceCompression>
            <loadBalancePartitionAttribute></loadBalancePartitionAttribute>
            <loadBalanceStatus>LOAD_BALANCE_NOT_CONFIGURED</loadBalanceStatus>
            <loadBalanceStrategy>DO_NOT_LOAD_BALANCE</loadBalanceStrategy>
            <name></name>
            <selectedRelationships>success</selectedRelationships>
            <source>
                <groupId>018bc718-2e0c-304d-0000-000000000000</groupId>
                <id>3f414852-eb25-3b1f-0000-000000000000</id>
                <type>PROCESSOR</type>
            </source>
            <zIndex>0</zIndex>
        </connections>
        <controllerServices>
            <id>8ab49a8d-fdf6-3ddd-0000-000000000000</id>
            <parentGroupId>018bc718-2e0c-304d-0000-000000000000</parentGroupId>
            <bundle>
                <artifact>nifi-pulsar-nar</artifact>
                <group>org.apache.nifi</group>
                <version>1.9.0</version>
            </bundle>
            <comments></comments>
            <descriptors>
                <entry>
                    <key>PULSAR_SERVICE_URL</key>
                    <value>
                        <name>PULSAR_SERVICE_URL</name>
                    </value>
                </entry>
                <entry>
                    <key>AUTHENTICATION_SERVICE</key>
                    <value>
                        <identifiesControllerService>org.apache.nifi.pulsar.auth.PulsarClientAuthenticationService</identifiesControllerService>
                        <name>AUTHENTICATION_SERVICE</name>
                    </value>
                </entry>
                <entry>
                    <key>CONCURRENT_LOOKUP_REQUESTS</key>
                    <value>
                        <name>CONCURRENT_LOOKUP_REQUESTS</name>
                    </value>
                </entry>
                <entry>
                    <key>CONNECTIONS_PER_BROKER</key>
                    <value>
                        <name>CONNECTIONS_PER_BROKER</name>
                    </value>
                </entry>
                <entry>
                    <key>IO_THREADS</key>
                    <value>
                        <name>IO_THREADS</name>
                    </value>
                </entry>
                <entry>
                    <key>KEEP_ALIVE_INTERVAL</key>
                    <value>
                        <name>KEEP_ALIVE_INTERVAL</name>
                    </value>
                </entry>
                <entry>
                    <key>LISTENER_THREADS</key>
                    <value>
                        <name>LISTENER_THREADS</name>
                    </value>
                </entry>
                <entry>
                    <key>MAXIMUM_LOOKUP_REQUESTS</key>
                    <value>
                        <name>MAXIMUM_LOOKUP_REQUESTS</name>
                    </value>
                </entry>
                <entry>
                    <key>MAXIMUM_REJECTED_REQUESTS</key>
                    <value>
                        <name>MAXIMUM_REJECTED_REQUESTS</name>
                    </value>
                </entry>
                <entry>
                    <key>OPERATION_TIMEOUT</key>
                    <value>
                        <name>OPERATION_TIMEOUT</name>
                    </value>
                </entry>
                <entry>
                    <key>STATS_INTERVAL</key>
                    <value>
                        <name>STATS_INTERVAL</name>
                    </value>
                </entry>
                <entry>
                    <key>USE_TCP_NO_DELAY</key>
                    <value>
                        <name>USE_TCP_NO_DELAY</name>
                    </value>
                </entry>
            </descriptors>
            <name>StandardPulsarClientService</name>
            <persistsState>false</persistsState>
            <properties>
                <entry>
                    <key>PULSAR_SERVICE_URL</key>
                    <value>pulsar:6650</value>
                </entry>
                <entry>
                    <key>AUTHENTICATION_SERVICE</key>
                </entry>
                <entry>
                    <key>CONCURRENT_LOOKUP_REQUESTS</key>
                </entry>
                <entry>
                    <key>CONNECTIONS_PER_BROKER</key>
                </entry>
                <entry>
                    <key>IO_THREADS</key>
                </entry>
                <entry>
                    <key>KEEP_ALIVE_INTERVAL</key>
                </entry>
                <entry>
                    <key>LISTENER_THREADS</key>
                </entry>
                <entry>
                    <key>MAXIMUM_LOOKUP_REQUESTS</key>
                </entry>
                <entry>
                    <key>MAXIMUM_REJECTED_REQUESTS</key>
                </entry>
                <entry>
                    <key>OPERATION_TIMEOUT</key>
                </entry>
                <entry>
                    <key>STATS_INTERVAL</key>
                </entry>
                <entry>
                    <key>USE_TCP_NO_DELAY</key>
                </entry>
            </properties>
            <state>ENABLED</state>
            <type>org.apache.nifi.pulsar.StandardPulsarClientService</type>
        </controllerServices>
        <processors>
            <id>10393c20-8620-35b3-0000-000000000000</id>
            <parentGroupId>018bc718-2e0c-304d-0000-000000000000</parentGroupId>
            <position>
                <x>411.0</x>
                <y>572.9048461914062</y>
            </position>
            <bundle>
                <artifact>nifi-pulsar-bose-nar</artifact>
                <group>org.apache.nifi</group>
                <version>1.9.0</version>
            </bundle>
            <config>
                <bulletinLevel>WARN</bulletinLevel>
                <comments></comments>
                <concurrentlySchedulableTaskCount>1</concurrentlySchedulableTaskCount>
                <descriptors>
                    <entry>
                        <key>PULSAR_CLIENT_SERVICE</key>
                        <value>
                            <identifiesControllerService>org.apache.nifi.pulsar.PulsarClientService</identifiesControllerService>
                            <name>PULSAR_CLIENT_SERVICE</name>
                        </value>
                    </entry>
                    <entry>
                        <key>TOPIC</key>
                        <value>
                            <name>TOPIC</name>
                        </value>
                    </entry>
                    <entry>
                        <key>ASYNC_ENABLED</key>
                        <value>
                            <name>ASYNC_ENABLED</name>
                        </value>
                    </entry>
                    <entry>
                        <key>MAX_ASYNC_REQUESTS</key>
                        <value>
                            <name>MAX_ASYNC_REQUESTS</name>
                        </value>
                    </entry>
                    <entry>
                        <key>BATCHING_ENABLED</key>
                        <value>
                            <name>BATCHING_ENABLED</name>
                        </value>
                    </entry>
                    <entry>
                        <key>BATCHING_MAX_MESSAGES</key>
                        <value>
                            <name>BATCHING_MAX_MESSAGES</name>
                        </value>
                    </entry>
                    <entry>
                        <key>BATCH_INTERVAL</key>
                        <value>
                            <name>BATCH_INTERVAL</name>
                        </value>
                    </entry>
                    <entry>
                        <key>BLOCK_IF_QUEUE_FULL</key>
                        <value>
                            <name>BLOCK_IF_QUEUE_FULL</name>
                        </value>
                    </entry>
                    <entry>
                        <key>COMPRESSION_TYPE</key>
                        <value>
                            <name>COMPRESSION_TYPE</name>
                        </value>
                    </entry>
                    <entry>
                        <key>MESSAGE_ROUTING_MODE</key>
                        <value>
                            <name>MESSAGE_ROUTING_MODE</name>
                        </value>
                    </entry>
                    <entry>
                        <key>MESSAGE_DEMARCATOR</key>
                        <value>
                            <name>MESSAGE_DEMARCATOR</name>
                        </value>
                    </entry>
                    <entry>
                        <key>PENDING_MAX_MESSAGES</key>
                        <value>
                            <name>PENDING_MAX_MESSAGES</name>
                        </value>
                    </entry>
                </descriptors>
                <executionNode>ALL</executionNode>
                <lossTolerant>false</lossTolerant>
                <penaltyDuration>30 sec</penaltyDuration>
                <properties>
                    <entry>
                        <key>PULSAR_CLIENT_SERVICE</key>
                        <value>8ab49a8d-fdf6-3ddd-0000-000000000000</value>
                    </entry>
                    <entry>
                        <key>TOPIC</key>
                        <value>persistent://sample/standalone/ns1/nifi-topic</value>
                    </entry>
                    <entry>
                        <key>ASYNC_ENABLED</key>
                        <value>false</value>
                    </entry>
                    <entry>
                        <key>MAX_ASYNC_REQUESTS</key>
                        <value>50</value>
                    </entry>
                    <entry>
                        <key>BATCHING_ENABLED</key>
                        <value>false</value>
                    </entry>
                    <entry>
                        <key>BATCHING_MAX_MESSAGES</key>
                        <value>1000</value>
                    </entry>
                    <entry>
                        <key>BATCH_INTERVAL</key>
                        <value>10 ms</value>
                    </entry>
                    <entry>
                        <key>BLOCK_IF_QUEUE_FULL</key>
                        <value>false</value>
                    </entry>
                    <entry>
                        <key>COMPRESSION_TYPE</key>
                        <value>NONE</value>
                    </entry>
                    <entry>
                        <key>MESSAGE_ROUTING_MODE</key>
                        <value>RoundRobinPartition</value>
                    </entry>
                    <entry>
                        <key>MESSAGE_DEMARCATOR</key>
                    </entry>
                    <entry>
                        <key>PENDING_MAX_MESSAGES</key>
                        <value>1000</value>
                    </entry>
                </properties>
                <runDurationMillis>0</runDurationMillis>
                <schedulingPeriod>0 sec</schedulingPeriod>
                <schedulingStrategy>TIMER_DRIVEN</schedulingStrategy>
                <yieldDuration>1 sec</yieldDuration>
            </config>
            <executionNodeRestricted>false</executionNodeRestricted>
            <name>PublishPulsarBose</name>
            <relationships>
                <autoTerminate>false</autoTerminate>
                <name>failure</name>
            </relationships>
            <relationships>
                <autoTerminate>false</autoTerminate>
                <name>success</name>
            </relationships>
            <state>RUNNING</state>
            <style/>
            <type>org.apache.nifi.processors.pulsar.pubsub.PublishPulsarBose</type>
        </processors>
        <processors>
            <id>1c52d129-2e97-3532-0000-000000000000</id>
            <parentGroupId>018bc718-2e0c-304d-0000-000000000000</parentGroupId>
            <position>
                <x>570.0247518029798</x>
                <y>841.8211321356863</y>
            </position>
            <bundle>
                <artifact>nifi-standard-nar</artifact>
                <group>org.apache.nifi</group>
                <version>1.9.0</version>
            </bundle>
            <config>
                <bulletinLevel>WARN</bulletinLevel>
                <comments></comments>
                <concurrentlySchedulableTaskCount>1</concurrentlySchedulableTaskCount>
                <descriptors>
                    <entry>
                        <key>FlowFile Success Iterations</key>
                        <value>
                            <name>FlowFile Success Iterations</name>
                        </value>
                    </entry>
                    <entry>
                        <key>FlowFile Failure Iterations</key>
                        <value>
                            <name>FlowFile Failure Iterations</name>
                        </value>
                    </entry>
                    <entry>
                        <key>FlowFile Rollback Iterations</key>
                        <value>
                            <name>FlowFile Rollback Iterations</name>
                        </value>
                    </entry>
                    <entry>
                        <key>FlowFile Rollback Yield Iterations</key>
                        <value>
                            <name>FlowFile Rollback Yield Iterations</name>
                        </value>
                    </entry>
                    <entry>
                        <key>FlowFile Rollback Penalty Iterations</key>
                        <value>
                            <name>FlowFile Rollback Penalty Iterations</name>
                        </value>
                    </entry>
                    <entry>
                        <key>FlowFile Exception Iterations</key>
                        <value>
                            <name>FlowFile Exception Iterations</name>
                        </value>
                    </entry>
                    <entry>
                        <key>FlowFile Exception Class</key>
                        <value>
                            <name>FlowFile Exception Class</name>
                        </value>
                    </entry>
                    <entry>
                        <key>No FlowFile Skip Iterations</key>
                        <value>
                            <name>No FlowFile Skip Iterations</name>
                        </value>
                    </entry>
                    <entry>
                        <key>No FlowFile Exception Iterations</key>
                        <value>
                            <name>No FlowFile Exception Iterations</name>
                        </value>
                    </entry>
                    <entry>
                        <key>No FlowFile Yield Iterations</key>
                        <value>
                            <name>No FlowFile Yield Iterations</name>
                        </value>
                    </entry>
                    <entry>
                        <key>No FlowFile Exception Class</key>
                        <value>
                            <name>No FlowFile Exception Class</name>
                        </value>
                    </entry>
                    <entry>
                        <key>Write Iterations</key>
                        <value>
                            <name>Write Iterations</name>
                        </value>
                    </entry>
                    <entry>
                        <key>Content Size</key>
                        <value>
                            <name>Content Size</name>
                        </value>
                    </entry>
                    <entry>
                        <key>@OnScheduled Pause Time</key>
                        <value>
                            <name>@OnScheduled Pause Time</name>
                        </value>
                    </entry>
                    <entry>
                        <key>Fail When @OnScheduled called</key>
                        <value>
                            <name>Fail When @OnScheduled called</name>
                        </value>
                    </entry>
                    <entry>
                        <key>@OnUnscheduled Pause Time</key>
                        <value>
                            <name>@OnUnscheduled Pause Time</name>
                        </value>
                    </entry>
                    <entry>
                        <key>Fail When @OnUnscheduled called</key>
                        <value>
                            <name>Fail When @OnUnscheduled called</name>
                        </value>
                    </entry>
                    <entry>
                        <key>@OnStopped Pause Time</key>
                        <value>
                            <name>@OnStopped Pause Time</name>
                        </value>
                    </entry>
                    <entry>
                        <key>Fail When @OnStopped called</key>
                        <value>
                            <name>Fail When @OnStopped called</name>
                        </value>
                    </entry>
                    <entry>
                        <key>OnTrigger Pause Time</key>
                        <value>
                            <name>OnTrigger Pause Time</name>
                        </value>
                    </entry>
                    <entry>
                        <key>CustomValidate Pause Time</key>
                        <value>
                            <name>CustomValidate Pause Time</name>
                        </value>
                    </entry>
                    <entry>
                        <key>Ignore Interrupts When Paused</key>
                        <value>
                            <name>Ignore Interrupts When Paused</name>
                        </value>
                    </entry>
                </descriptors>
                <executionNode>ALL</executionNode>
                <lossTolerant>false</lossTolerant>
                <penaltyDuration>30 sec</penaltyDuration>
                <properties>
                    <entry>
                        <key>FlowFile Success Iterations</key>
                        <value>1</value>
                    </entry>
                    <entry>
                        <key>FlowFile Failure Iterations</key>
                        <value>0</value>
                    </entry>
                    <entry>
                        <key>FlowFile Rollback Iterations</key>
                        <value>0</value>
                    </entry>
                    <entry>
                        <key>FlowFile Rollback Yield Iterations</key>
                        <value>0</value>
                    </entry>
                    <entry>
                        <key>FlowFile Rollback Penalty Iterations</key>
                        <value>0</value>
                    </entry>
                    <entry>
                        <key>FlowFile Exception Iterations</key>
                        <value>0</value>
                    </entry>
                    <entry>
                        <key>FlowFile Exception Class</key>
                        <value>java.lang.RuntimeException</value>
                    </entry>
                    <entry>
                        <key>No FlowFile Skip Iterations</key>
                        <value>1</value>
                    </entry>
                    <entry>
                        <key>No FlowFile Exception Iterations</key>
                        <value>0</value>
                    </entry>
                    <entry>
                        <key>No FlowFile Yield Iterations</key>
                        <value>0</value>
                    </entry>
                    <entry>
                        <key>No FlowFile Exception Class</key>
                        <value>java.lang.RuntimeException</value>
                    </entry>
                    <entry>
                        <key>Write Iterations</key>
                        <value>0</value>
                    </entry>
                    <entry>
                        <key>Content Size</key>
                        <value>1 KB</value>
                    </entry>
                    <entry>
                        <key>@OnScheduled Pause Time</key>
                        <value>0 sec</value>
                    </entry>
                    <entry>
                        <key>Fail When @OnScheduled called</key>
                        <value>false</value>
                    </entry>
                    <entry>
                        <key>@OnUnscheduled Pause Time</key>
                        <value>0 sec</value>
                    </entry>
                    <entry>
                        <key>Fail When @OnUnscheduled called</key>
                        <value>false</value>
                    </entry>
                    <entry>
                        <key>@OnStopped Pause Time</key>
                        <value>0 sec</value>
                    </entry>
                    <entry>
                        <key>Fail When @OnStopped called</key>
                        <value>false</value>
                    </entry>
                    <entry>
                        <key>OnTrigger Pause Time</key>
                        <value>0 sec</value>
                    </entry>
                    <entry>
                        <key>CustomValidate Pause Time</key>
                        <value>0 sec</value>
                    </entry>
                    <entry>
                        <key>Ignore Interrupts When Paused</key>
                        <value>false</value>
                    </entry>
                </properties>
                <runDurationMillis>0</runDurationMillis>
                <schedulingPeriod>0 sec</schedulingPeriod>
                <schedulingStrategy>TIMER_DRIVEN</schedulingStrategy>
                <yieldDuration>1 sec</yieldDuration>
            </config>
            <executionNodeRestricted>false</executionNodeRestricted>
            <name>DebugFlow</name>
            <relationships>
                <autoTerminate>true</autoTerminate>
                <name>failure</name>
            </relationships>
            <relationships>
                <autoTerminate>true</autoTerminate>
                <name>success</name>
            </relationships>
            <state>STOPPED</state>
            <style/>
            <type>org.apache.nifi.processors.standard.DebugFlow</type>
        </processors>
        <processors>
            <id>3f414852-eb25-3b1f-0000-000000000000</id>
            <parentGroupId>018bc718-2e0c-304d-0000-000000000000</parentGroupId>
            <position>
                <x>414.0</x>
                <y>0.0</y>
            </position>
            <bundle>
                <artifact>nifi-standard-nar</artifact>
                <group>org.apache.nifi</group>
                <version>1.9.0</version>
            </bundle>
            <config>
                <bulletinLevel>WARN</bulletinLevel>
                <comments></comments>
                <concurrentlySchedulableTaskCount>1</concurrentlySchedulableTaskCount>
                <descriptors>
                    <entry>
                        <key>File Size</key>
                        <value>
                            <name>File Size</name>
                        </value>
                    </entry>
                    <entry>
                        <key>Batch Size</key>
                        <value>